*KEYWORD
$
*MAT_RIGID
       1000.42121711      70.0       0.3       0.0       0.0       0.0          
       0.0       0.0       0.0
         0       0.0       0.0       0.0       0.0       0.0
$
$
$
$ =============
$ SECTION cards
$ =============
$
*SECTION_SHELL
       100         2       0.0         0       0.0       0.0         0         0
       1.0       1.0       1.0       1.0       0.0       0.0       0.0         0
$
$
$
$ ==========
$ PART cards
$ ==========
$
*PART_INERTIA
$HMNAME COMPS     100rigid sphere
rigid sphere
       100       100       100         0         0         0         0         0
    -170.0      48.0     820.0  1.213E-3         0         0
   1.863E9  -16460.0  177200.0   1.863E9   -2940.0   1.863E9
       0.0       0.0   -8000.0       0.0       0.0       0.0
$
$
$
$ ==========
$ NODE cards
$ ==========
$
*NODE
       1      -134.41808       18.595903       846.30817       0       0
       2      -131.31955       19.865896       840.32654       0       0
       3      -127.76133      -7.3747845       841.57562       0       0
       4      -162.76476       42.360958       798.61774       0       0
       5      -191.64282      -7.2217326       862.23071       0       0
       6      -203.56389      -7.0006089       853.59253       0       0
       7      -138.82292      -31.253979       801.15381       0       0
       8      -197.59354      -27.805111       847.73938       0       0
       9      -212.21431      -7.2395172       841.66888       0       0
      10      -201.15718       31.075832       800.82910       0       0
      11      -136.40106      -33.649895       813.45813       0       0
      12      -176.89574       38.520309       847.79633       0       0
      13      -137.25319       32.568054       806.92456       0       0
      14      -177.02834       27.777973       858.50958       0       0
      15      -170.49498       21.653154       862.83569       0       0
      16      -142.50739      -7.0076456       858.71753       0       0
      17      -155.90521       6.9739437       865.35089       0       0
      18      -148.76442     -0.33583793       863.04578       0       0
      19      -127.23828     -0.41548014       841.80054       0       0
      20      -163.32951       14.509719       865.26556       0       0
$ ... 585 like lines cut
$
$
$ =============
$ ELEMENT cards
$ =============
$
*ELEMENT_SHELL
       1     100     501     163     502     293
       2     100     282     503     167     474
       3     100     503     295     504     167
       4     100     167     504     284     483
       5     100     474     167     483     269
       6     100     279     470     168     495
       7     100     470     276     491     168
       8     100     168     491     289     497
       9     100     495     168     497     292
      10     100     278     467     166     493
      11     100     467     277     498     166
      12     100     166     498     294     500
      13     100     493     166     500     291
      14     100     283     508     155     479
      15     100     508     298     509     155
      16     100     155     509     287     488
      17     100     479     155     488     274
      18     100     282     475     156     503
      19     100     475     280     501     156
      20     100     156     501     293     505
$ ... 580 like lines cut
$
*END
