$# LS-DYNA Keyword file created by LS-PrePost(R) V4.8.19 - 23Aug2021
$# Created on Nov-2-2021 (08:42:48)
*KEYWORD
$
*DATABASE_HISTORY_NODE
       287       513 
$ 
*MAT_RIGID
$#     mid        ro         e        pr         n    couple         m     alias
       100 0.4212171      70.0       0.3       0.0       0.0       0.0          
$#     cmo      con1      con2    
       0.0         0         0
$#lco or a1        a2        a3        v1        v2        v3  
       0.0       0.0       0.0       0.0       0.0       0.0
$
$
$
$ =============
$ SECTION cards
$ =============
$
*SECTION_SHELL
$#   secid    elform      shrf       nip     propt   qr/irid     icomp     setyp
       100        16       0.0         0       1.0         0         0         1
$#      t1        t2        t3        t4      nloc     marea      idof    edgset
       1.0       1.0       1.0       1.0       0.0       0.0       0.0         0
$---+----1----+----2----+----3----+----4----+----5----+----6----+----7----+----8
$
$ ==========
$ PART cards
$ ==========
$---+----1----+----2----+----3----+----4----+----5----+----6----+----7----+----8
$ 
$ 
*PART_INERTIA
$HMNAME COMPS     100rigid sphere
$#                                                                         title
rigid sphere(shell)
$#     pid     secid       mid     eosid      hgid      grav    adpopt      tmid
       100       100       100         0         0         0         0         0
$#      xc        yc        zc        tm      ircs    nodeid      
    -170.0      48.0     820.0  0.001213         0         0
$#     ixx       ixy       ixz       iyy       iyz       izz   
1.863000E9  -16460.0  177200.01.863000E9   -2940.01.863000E9
$#     vtx       vty       vtz       vrx       vry       vrz   
       0.0       0.0   -8000.0       0.0       0.0       0.0
$
$
$---+----1----+----2----+----3----+----4----+----5----+----6----+----7----+----8
$ ==========
$ NODE cards
$ ==========
$
*NODE
$#   nid               x               y               z      tc      rc  
       1       -134.4181         18.5959        846.3082       0       0
       2       -131.3195         19.8659        840.3265       0       0
       3       -127.7613       -7.374784        841.5756       0       0
       4       -162.7648        42.36096        798.6177       0       0
       5       -191.6428       -7.221733        862.2307       0       0
       6       -203.5639       -7.000609        853.5925       0       0
       7       -138.8229       -31.25398        801.1538       0       0
       8       -197.5935       -27.80511        847.7394       0       0
       9       -212.2143       -7.239517        841.6689       0       0
      10       -201.1572        31.07583        800.8291       0       0
      11       -136.4011       -33.64989        813.4581       0       0
      12       -176.8957        38.52031        847.7963       0       0
      13       -137.2532        32.56805        806.9246       0       0
      14       -177.0283        27.77797        858.5096       0       0
      15        -170.495        21.65315        862.8357       0       0
      16       -142.5074       -7.007646        858.7175       0       0
      17       -155.9052        6.973944        865.3509       0       0
      18       -148.7644      -0.3358379        863.0458       0       0
      19       -127.2383      -0.4154801        841.8005       0       0
      20       -163.3295        14.50972        865.2656       0       0
$ ... 585 like lines cut
$
$
$ =============
$ ELEMENT cards
$ =============
$
*ELEMENT_SHELL
$#   eid     pid      n1      n2      n3      n4      n5      n6      n7      n8
       1     100     501     163     502     293       0       0       0       0
       2     100     282     503     167     474       0       0       0       0
       3     100     503     295     504     167       0       0       0       0
       4     100     167     504     284     483       0       0       0       0
       5     100     474     167     483     269       0       0       0       0
       6     100     279     470     168     495       0       0       0       0
       7     100     470     276     491     168       0       0       0       0
       8     100     168     491     289     497       0       0       0       0
       9     100     495     168     497     292       0       0       0       0
      10     100     278     467     166     493       0       0       0       0
      11     100     467     277     498     166       0       0       0       0
      12     100     166     498     294     500       0       0       0       0
      13     100     493     166     500     291       0       0       0       0
      14     100     283     508     155     479       0       0       0       0
      15     100     508     298     509     155       0       0       0       0
      16     100     155     509     287     488       0       0       0       0
      17     100     479     155     488     274       0       0       0       0
      18     100     282     475     156     503       0       0       0       0
      19     100     475     280     501     156       0       0       0       0
      20     100     156     501     293     505       0       0       0       0
$ ... 580 like lines cut
*TITLE
$#                                                                         title
LS-DYNA keyword deck by LS-PrePost
$
*END
