$# LS-DYNA Keyword file created by LS-PrePost(R) V4.8.19 - 23Aug2021
$# Created on Nov-2-2021 (08:42:48)
*KEYWORD
$ 
*DATABASE_HISTORY_NODE
      9245      9247      9249
$
*MAT_RIGID
$#     mid        ro         e        pr         n    couple         m     alias
       100 0.4212171      70.0       0.3       0.0       0.0       0.0          
$#     cmo      con1      con2    
       0.0         0         0
$#lco or a1        a2        a3        v1        v2        v3  
       0.0       0.0       0.0       0.0       0.0       0.0
$
$
$
$ =============
$ SECTION cards
$ =============
$
*SECTION_SHELL
$#   secid    elform      shrf       nip     propt   qr/irid     icomp     setyp
       100        16       0.0         0       1.0         0         0         1
$#      t1        t2        t3        t4      nloc     marea      idof    edgset
       1.0       1.0       1.0       1.0       0.0       0.0       0.0         0
$---+----1----+----2----+----3----+----4----+----5----+----6----+----7----+----8
$
$ ==========
$ PART cards
$ ==========
$---+----1----+----2----+----3----+----4----+----5----+----6----+----7----+----8
$ 
$ 
*PART_INERTIA
$HMNAME COMPS     100rigid sphere
$#                                                                         title
rigid sphere(shell)
$#     pid     secid       mid     eosid      hgid      grav    adpopt      tmid
       100       100       100         0         0         0         0         0
$#      xc        yc        zc        tm      ircs    nodeid      
    -170.0       0.0     820.0  0.001213         0         0
$#     ixx       ixy       ixz       iyy       iyz       izz   
1.863000E9  -16460.0  177200.01.863000E9   -2940.01.863000E9
$#     vtx       vty       vtz       vrx       vry       vrz   
       0.0       0.0   -8000.0       0.0       0.0       0.0
$
$
$---+----1----+----2----+----3----+----4----+----5----+----6----+----7----+----8
$ ==========
$ NODE cards
$ ==========
$
*NODE
$#   nid               x               y               z      tc      rc  
       1       -142.2872       -27.71281        792.2872       0       0
       2       -141.8256       -28.17443        793.2343       0       0
       3       -141.3656        -28.6344        794.2291       0       0
       4       -140.9091       -29.09091        795.2727       0       0
       5        -140.458       -29.54196        796.3665       0       0
       6       -140.0146       -29.98536         797.511       0       0
       7       -139.5812       -30.41877        798.7068       0       0
       8       -139.1604       -30.83964        799.9542       0       0
       9       -138.7547       -31.24534        801.2528       0       0
      10       -138.3669       -31.63308        802.6018       0       0
      11          -138.0           -32.0           804.0       0       0
      12       -137.6568       -32.34322        805.4456       0       0
      13       -137.3401       -32.65986         806.936       0       0
      14       -137.0529       -32.94711        808.4685       0       0
      15       -136.7977       -33.20229        810.0393       0       0
      16       -136.5771       -33.42291        811.6443       0       0
      17       -136.3933       -33.60672        813.2787       0       0
      18       -136.2482        -33.7518        814.9373       0       0
      19       -136.1434       -33.85659        816.6143       0       0
      20       -136.0801       -33.91993         818.304       0       0
$ ... 9582 like lines cut
$
$
$ =============
$ ELEMENT cards
$ =============
$
*ELEMENT_SHELL
$#   eid     pid      n1      n2      n3      n4      n5      n6      n7      n8
       1     100       1      42      43       2       0       0       0       0
       2     100       2      43      44       3       0       0       0       0
       3     100       3      44      45       4       0       0       0       0
       4     100       4      45      46       5       0       0       0       0
       5     100       5      46      47       6       0       0       0       0
       6     100       6      47      48       7       0       0       0       0
       7     100       7      48      49       8       0       0       0       0
       8     100       8      49      50       9       0       0       0       0
       9     100       9      50      51      10       0       0       0       0
      10     100      10      51      52      11       0       0       0       0
      11     100      11      52      53      12       0       0       0       0
      12     100      12      53      54      13       0       0       0       0
      13     100      13      54      55      14       0       0       0       0
      14     100      14      55      56      15       0       0       0       0
      15     100      15      56      57      16       0       0       0       0
      16     100      16      57      58      17       0       0       0       0
      17     100      17      58      59      18       0       0       0       0
      18     100      18      59      60      19       0       0       0       0
      19     100      19      60      61      20       0       0       0       0
      20     100      20      61      62      21       0       0       0       0
$ ... 9580 like lines cut
*TITLE
$#                                                                         title
LS-DYNA keyword deck by LS-PrePost
$
*END
